functions/OneTimeScripts/validationAgainstOpenDSS_MATLAB/ieee123_1ph_created/results/pv000_batt000/powers2.csv
Element, Terminal, P(kW), Q(kvar),  P_Normal, Q_Normal, P_Emergency, Q_Emergency
"Line.L115"             ,   1,       730.7,       168.7,         0.0,         0.0,         0.0,         0.0
"Line.L115"             ,   2,      -728.5,      -164.2
"Line.L1"               ,   1,         4.1,         2.1,         0.0,         0.0,         0.0,         0.0
"Line.L1"               ,   2,        -4.1,        -2.1
"Line.L2"               ,   1,        20.6,        10.3,         0.0,         0.0,         0.0,         0.0
"Line.L2"               ,   2,       -20.6,       -10.3
"Line.L3"               ,   1,       695.5,       147.7,         0.0,         0.0,         0.0,         0.0
"Line.L3"               ,   2,      -694.0,      -144.6
"Line.L4"               ,   1,         8.2,         4.1,         0.0,         0.0,         0.0,         0.0
"Line.L4"               ,   2,        -8.2,        -4.1
"Line.L5"               ,   1,        12.4,         6.2,         0.0,         0.0,         0.0,         0.0
"Line.L5"               ,   2,       -12.4,        -6.2
"Line.L6"               ,   1,         8.2,         4.1,         0.0,         0.0,         0.0,         0.0
"Line.L6"               ,   2,        -8.2,        -4.1
"Line.L7"               ,   1,       689.9,       142.5,         0.0,         0.0,         0.0,         0.0
"Line.L7"               ,   2,      -688.9,      -140.5
"Line.L8"               ,   1,         4.1,         2.1,         0.0,         0.0,         0.0,         0.0
"Line.L8"               ,   2,        -4.1,        -2.1
"Line.L9"               ,   1,        20.6,        10.3,         0.0,         0.0,         0.0,         0.0
"Line.L9"               ,   2,       -20.6,       -10.3
"Line.L10"              ,   1,       664.2,       128.1,         0.0,         0.0,         0.0,         0.0
"Line.L10"              ,   2,      -662.8,      -125.3
"Line.L11"              ,   1,        12.4,         6.2,         0.0,         0.0,         0.0,         0.0
"Line.L11"              ,   2,       -12.4,        -6.2
"Line.L12"              ,   1,        20.6,        10.3,         0.0,         0.0,         0.0,         0.0
"Line.L12"              ,   2,       -20.6,       -10.3
"Line.L13"              ,   1,       230.7,       135.9,         0.0,         0.0,         0.0,         0.0
"Line.L13"              ,   2,      -230.1,      -134.6
"Line.L14"              ,   1,         8.2,         4.1,         0.0,         0.0,         0.0,         0.0
"Line.L14"              ,   2,        -8.2,        -4.1
"Line.L15"              ,   1,         4.1,         2.1,         0.0,         0.0,         0.0,         0.0
"Line.L15"              ,   2,        -4.1,        -2.1
"Line.L16"              ,   1,         8.2,         4.1,         0.0,         0.0,         0.0,         0.0
"Line.L16"              ,   2,        -8.2,        -4.1
"Line.L17"              ,   1,         4.1,         2.1,         0.0,         0.0,         0.0,         0.0
"Line.L17"              ,   2,        -4.1,        -2.1
"Line.L18"              ,   1,        16.5,         8.2,         0.0,         0.0,         0.0,         0.0
"Line.L18"              ,   2,       -16.5,        -8.2
"Line.L19"              ,   1,        57.7,        28.9,         0.0,         0.0,         0.0,         0.0
"Line.L19"              ,   2,       -57.7,       -28.9
"Line.L20"              ,   1,         8.2,         4.1,         0.0,         0.0,         0.0,         0.0
"Line.L20"              ,   2,        -8.2,        -4.1
"Line.L21"              ,   1,         8.2,         4.1,         0.0,         0.0,         0.0,         0.0
"Line.L21"              ,   2,        -8.2,        -4.1
"Line.L22"              ,   1,        49.5,        24.7,         0.0,         0.0,         0.0,         0.0
"Line.L22"              ,   2,       -49.5,       -24.7
"Line.L23"              ,   1,         8.2,         4.1,         0.0,         0.0,         0.0,         0.0
"Line.L23"              ,   2,        -8.2,        -4.1
"Line.L24"              ,   1,        41.2,        20.6,         0.0,         0.0,         0.0,         0.0
"Line.L24"              ,   2,       -41.2,       -20.6
"Line.L25"              ,   1,        16.5,         8.2,         0.0,         0.0,         0.0,         0.0
"Line.L25"              ,   2,       -16.5,        -8.2
"Line.L26"              ,   1,        24.7,        12.4,         0.0,         0.0,         0.0,         0.0
"Line.L26"              ,   2,       -24.7,       -12.4
"Line.L27"              ,   1,         8.2,         4.1,         0.0,         0.0,         0.0,         0.0
"Line.L27"              ,   2,        -8.2,        -4.1
"Line.L28"              ,   1,         8.2,         4.1,         0.0,         0.0,         0.0,         0.0
"Line.L28"              ,   2,        -8.2,        -4.1
"Line.L29"              ,   1,         8.2,         4.1,         0.0,         0.0,         0.0,         0.0
"Line.L29"              ,   2,        -8.2,        -4.1
"Line.L30"              ,   1,        16.5,         8.2,         0.0,         0.0,         0.0,         0.0
"Line.L30"              ,   2,       -16.5,        -8.2
"Line.L31"              ,   1,         8.2,         4.1,         0.0,         0.0,         0.0,         0.0
"Line.L31"              ,   2,        -8.2,        -4.1
"Line.L32"              ,   1,         0.0,        -0.0,         0.0,         0.0,         0.0,         0.0
"Line.L32"              ,   2,        -0.0,        -0.0
"Line.L33"              ,   1,         4.1,         2.1,         0.0,         0.0,         0.0,         0.0
"Line.L33"              ,   2,        -4.1,        -2.1
"Line.L34"              ,   1,        12.4,         6.2,         0.0,         0.0,         0.0,         0.0
"Line.L34"              ,   2,       -12.4,        -6.2
"Line.L35"              ,   1,        16.5,         8.2,         0.0,         0.0,         0.0,         0.0
"Line.L35"              ,   2,       -16.5,        -8.2
"Line.L36"              ,   1,       131.0,        84.9,         0.0,         0.0,         0.0,         0.0
"Line.L36"              ,   2,      -131.0,       -84.8
"Line.L37"              ,   1,         8.2,         4.1,         0.0,         0.0,         0.0,         0.0
"Line.L37"              ,   2,        -8.2,        -4.1
"Line.L38"              ,   1,         8.2,         4.1,         0.0,         0.0,         0.0,         0.0
"Line.L38"              ,   2,        -8.2,        -4.1
"Line.L39"              ,   1,         4.1,         2.1,         0.0,         0.0,         0.0,         0.0
"Line.L39"              ,   2,        -4.1,        -2.1
"Line.L40"              ,   1,         4.1,         2.1,         0.0,         0.0,         0.0,         0.0
"Line.L40"              ,   2,        -4.1,        -2.1
"Line.L41"              ,   1,       126.9,        82.7,         0.0,         0.0,         0.0,         0.0
"Line.L41"              ,   2,      -126.8,       -82.6
"Line.L42"              ,   1,         8.2,         4.1,         0.0,         0.0,         0.0,         0.0
"Line.L42"              ,   2,        -8.2,        -4.1
"Line.L43"              ,   1,       114.4,        76.4,         0.0,         0.0,         0.0,         0.0
"Line.L43"              ,   2,      -114.4,       -76.3
"Line.L44"              ,   1,         8.2,         4.1,         0.0,         0.0,         0.0,         0.0
"Line.L44"              ,   2,        -8.2,        -4.1
"Line.L45"              ,   1,       106.2,        72.2,         0.0,         0.0,         0.0,         0.0
"Line.L45"              ,   2,      -106.1,       -72.1
"Line.L46"              ,   1,         4.1,         2.1,         0.0,         0.0,         0.0,         0.0
"Line.L46"              ,   2,        -4.1,        -2.1
"Line.L47"              ,   1,        43.3,        30.9,         0.0,         0.0,         0.0,         0.0
"Line.L47"              ,   2,       -43.3,       -30.9
"Line.L48"              ,   1,        41.2,        25.8,         0.0,         0.0,         0.0,         0.0
"Line.L48"              ,   2,       -41.2,       -25.7
"Line.L49"              ,   1,        12.4,         6.2,         0.0,         0.0,         0.0,         0.0
"Line.L49"              ,   2,       -12.4,        -6.2
"Line.L50"              ,   1,         4.1,         2.1,         0.0,         0.0,         0.0,         0.0
"Line.L50"              ,   2,        -4.1,        -2.1
"Line.L51"              ,   1,         0.0,        -0.0,         0.0,         0.0,         0.0,         0.0
"Line.L51"              ,   2,        -0.0,         0.0
"Line.L52"              ,   1,       402.5,       -26.5,         0.0,         0.0,         0.0,         0.0
"Line.L52"              ,   2,      -402.2,        27.1
"Line.L53"              ,   1,       393.9,       -31.3,         0.0,         0.0,         0.0,         0.0
"Line.L53"              ,   2,      -393.7,        31.7
"Line.L54"              ,   1,         8.2,         4.1,         0.0,         0.0,         0.0,         0.0
"Line.L54"              ,   2,        -8.2,        -4.1
"Line.L55"              ,   1,       385.5,       -35.8,         0.0,         0.0,         0.0,         0.0
"Line.L55"              ,   2,      -385.0,        36.9
"Line.L56"              ,   1,         4.1,         2.1,         0.0,         0.0,         0.0,         0.0
"Line.L56"              ,   2,        -4.1,        -2.1
"Line.L57"              ,   1,         8.2,         4.1,         0.0,         0.0,         0.0,         0.0
"Line.L57"              ,   2,        -8.2,        -4.1
"Line.L58"              ,   1,       376.7,       -41.0,         0.0,         0.0,         0.0,         0.0
"Line.L58"              ,   2,      -375.6,        43.3
"Line.L59"              ,   1,         4.1,         2.1,         0.0,         0.0,         0.0,         0.0
"Line.L59"              ,   2,        -4.1,        -2.1
"Line.L60"              ,   1,         0.0,        -0.0,         0.0,         0.0,         0.0,         0.0
"Line.L60"              ,   2,        -0.0,         0.0
"Line.L61"              ,   1,        76.4,        43.3,         0.0,         0.0,         0.0,         0.0
"Line.L61"              ,   2,       -76.4,       -43.2
"Line.L62"              ,   1,        68.1,        39.1,         0.0,         0.0,         0.0,         0.0
"Line.L62"              ,   2,       -68.1,       -39.1
"Line.L63"              ,   1,        59.9,        35.0,         0.0,         0.0,         0.0,         0.0
"Line.L63"              ,   2,       -59.8,       -35.0
"Line.L64"              ,   1,        44.3,        27.8,         0.0,         0.0,         0.0,         0.0
"Line.L64"              ,   2,       -44.3,       -27.8
"Line.L65"              ,   1,        15.5,         7.2,         0.0,         0.0,         0.0,         0.0
"Line.L65"              ,   2,       -15.5,        -7.2
"Line.L66"              ,   1,        24.7,        12.4,         0.0,         0.0,         0.0,         0.0
"Line.L66"              ,   2,       -24.7,       -12.4
"Line.L67"              ,   1,       179.2,      -147.1,         0.0,         0.0,         0.0,         0.0
"Line.L67"              ,   2,      -179.0,       147.5
"Line.L68"              ,   1,        90.8,        45.5,         0.0,         0.0,         0.0,         0.0
"Line.L68"              ,   2,       -90.7,       -45.4
"Line.L69"              ,   1,        20.6,        10.3,         0.0,         0.0,         0.0,         0.0
"Line.L69"              ,   2,       -20.6,       -10.3
"Line.L70"              ,   1,        12.4,         6.2,         0.0,         0.0,         0.0,         0.0
"Line.L70"              ,   2,       -12.4,        -6.2
"Line.L71"              ,   1,         8.2,         4.1,         0.0,         0.0,         0.0,         0.0
"Line.L71"              ,   2,        -8.2,        -4.1
"Line.L72"              ,   1,        24.7,        12.4,         0.0,         0.0,         0.0,         0.0
"Line.L72"              ,   2,       -24.7,       -12.4
"Line.L73"              ,   1,       154.3,      -159.8,         0.0,         0.0,         0.0,         0.0
"Line.L73"              ,   2,      -154.2,       160.1
"Line.L74"              ,   1,        16.5,         8.2,         0.0,         0.0,         0.0,         0.0
"Line.L74"              ,   2,       -16.5,        -8.2
"Line.L75"              ,   1,         8.2,         4.1,         0.0,         0.0,         0.0,         0.0
"Line.L75"              ,   2,        -8.2,        -4.1
"Line.L76"              ,   1,        50.1,      -174.0,         0.0,         0.0,         0.0,         0.0
"Line.L76"              ,   2,       -49.9,       174.3
"Line.L77"              ,   1,        53.6,       -23.1,         0.0,         0.0,         0.0,         0.0
"Line.L77"              ,   2,       -53.6,        23.2
"Line.L78"              ,   1,        41.7,      -178.4,         0.0,         0.0,         0.0,         0.0
"Line.L78"              ,   2,       -41.7,       178.5
"Line.L79"              ,   1,         8.2,         4.1,         0.0,         0.0,         0.0,         0.0
"Line.L79"              ,   2,        -8.2,        -4.1
"Line.L80"              ,   1,        33.4,      -182.6,         0.0,         0.0,         0.0,         0.0
"Line.L80"              ,   2,       -33.2,       183.0
"Line.L81"              ,   1,        25.0,      -187.1,         0.0,         0.0,         0.0,         0.0
"Line.L81"              ,   2,       -24.9,       187.2
"Line.L82"              ,   1,        12.6,      -193.4,         0.0,         0.0,         0.0,         0.0
"Line.L82"              ,   2,       -12.5,       193.6
"Line.L83"              ,   1,        12.4,         6.2,         0.0,         0.0,         0.0,         0.0
"Line.L83"              ,   2,       -12.4,        -6.2
"Line.L84"              ,   1,         4.2,      -197.7,         0.0,         0.0,         0.0,         0.0
"Line.L84"              ,   2,        -4.1,       198.0
"Line.L85"              ,   1,         8.2,         4.1,         0.0,         0.0,         0.0,         0.0
"Line.L85"              ,   2,        -8.2,        -4.1
"Line.L86"              ,   1,        49.5,       -25.2,         0.0,         0.0,         0.0,         0.0
"Line.L86"              ,   2,       -49.5,        25.3
"Line.L87"              ,   1,         8.2,       -12.5,         0.0,         0.0,         0.0,         0.0
"Line.L87"              ,   2,        -8.2,        12.5
"Line.L88"              ,   1,        33.0,       -16.8,         0.0,         0.0,         0.0,         0.0
"Line.L88"              ,   2,       -33.0,        16.9
"Line.L89"              ,   1,         8.2,       -12.5,         0.0,         0.0,         0.0,         0.0
"Line.L89"              ,   2,        -8.2,        12.5
"Line.L90"              ,   1,        24.7,        -4.3,         0.0,         0.0,         0.0,         0.0
"Line.L90"              ,   2,       -24.7,         4.3
"Line.L91"              ,   1,         8.2,       -12.5,         0.0,         0.0,         0.0,         0.0
"Line.L91"              ,   2,        -8.2,        12.5
"Line.L92"              ,   1,        16.5,         8.2,         0.0,         0.0,         0.0,         0.0
"Line.L92"              ,   2,       -16.5,        -8.2
"Line.L93"              ,   1,         8.2,         4.1,         0.0,         0.0,         0.0,         0.0
"Line.L93"              ,   2,        -8.2,        -4.1
"Line.L94"              ,   1,         8.2,         4.1,         0.0,         0.0,         0.0,         0.0
"Line.L94"              ,   2,        -8.2,        -4.1
"Line.L95"              ,   1,         4.1,         2.1,         0.0,         0.0,         0.0,         0.0
"Line.L95"              ,   2,        -4.1,        -2.1
"Line.L96"              ,   1,        24.7,        12.4,         0.0,         0.0,         0.0,         0.0
"Line.L96"              ,   2,       -24.7,       -12.4
"Line.L97"              ,   1,        16.5,         8.2,         0.0,         0.0,         0.0,         0.0
"Line.L97"              ,   2,       -16.5,        -8.2
"Line.L98"              ,   1,         8.2,         4.1,         0.0,         0.0,         0.0,         0.0
"Line.L98"              ,   2,        -8.2,        -4.1
"Line.L99"              ,   1,         0.0,        -0.0,         0.0,         0.0,         0.0,         0.0
"Line.L99"              ,   2,         0.0,         0.0
"Line.L118"             ,   1,        66.0,        33.0,         0.0,         0.0,         0.0,         0.0
"Line.L118"             ,   2,       -66.0,       -33.0
"Line.L100"             ,   1,        20.6,        10.3,         0.0,         0.0,         0.0,         0.0
"Line.L100"             ,   2,       -20.6,       -10.3
"Line.L101"             ,   1,        45.4,        22.7,         0.0,         0.0,         0.0,         0.0
"Line.L101"             ,   2,       -45.4,       -22.7
"Line.L102"             ,   1,        16.5,         8.2,         0.0,         0.0,         0.0,         0.0
"Line.L102"             ,   2,       -16.5,        -8.2
"Line.L103"             ,   1,         8.2,         4.1,         0.0,         0.0,         0.0,         0.0
"Line.L103"             ,   2,        -8.2,        -4.1
"Line.L104"             ,   1,        16.5,         8.2,         0.0,         0.0,         0.0,         0.0
"Line.L104"             ,   2,       -16.5,        -8.2
"Line.L105"             ,   1,        28.9,        14.4,         0.0,         0.0,         0.0,         0.0
"Line.L105"             ,   2,       -28.9,       -14.4
"Line.L106"             ,   1,         8.2,         4.1,         0.0,         0.0,         0.0,         0.0
"Line.L106"             ,   2,        -8.2,        -4.1
"Line.L107"             ,   1,        28.9,        14.5,         0.0,         0.0,         0.0,         0.0
"Line.L107"             ,   2,       -28.9,       -14.4
"Line.L108"             ,   1,         0.0,        -0.0,         0.0,         0.0,         0.0,         0.0
"Line.L108"             ,   2,         0.0,         0.0
"Line.L109"             ,   1,        20.6,        10.3,         0.0,         0.0,         0.0,         0.0
"Line.L109"             ,   2,       -20.6,       -10.3
"Line.L110"             ,   1,         4.1,         2.1,         0.0,         0.0,         0.0,         0.0
"Line.L110"             ,   2,        -4.1,        -2.1
"Line.L111"             ,   1,        16.5,         8.2,         0.0,         0.0,         0.0,         0.0
"Line.L111"             ,   2,       -16.5,        -8.2
"Line.L112"             ,   1,        12.4,         6.2,         0.0,         0.0,         0.0,         0.0
"Line.L112"             ,   2,       -12.4,        -6.2
"Line.L113"             ,   1,         4.1,         2.1,         0.0,         0.0,         0.0,         0.0
"Line.L113"             ,   2,        -4.1,        -2.1
"Line.L114"             ,   1,       155.9,        97.5,         0.0,         0.0,         0.0,         0.0
"Line.L114"             ,   2,      -155.8,       -97.3
"Line.L116"             ,   1,       411.4,       -20.9,         0.0,         0.0,         0.0,         0.0
"Line.L116"             ,   2,      -410.8,        22.3
"Line.L117"             ,   1,       295.1,       -88.6,         0.0,         0.0,         0.0,         0.0
"Line.L117"             ,   2,      -294.7,        89.3
"Line.SW1"              ,   1,       730.7,       168.7,         0.0,         0.0,         0.0,         0.0
"Line.SW1"              ,   2,      -730.7,      -168.7
"Line.SW2"              ,   1,       411.4,       -20.9,         0.0,         0.0,         0.0,         0.0
"Line.SW2"              ,   2,      -411.4,        20.9
"Line.SW3"              ,   1,       155.9,        97.5,         0.0,         0.0,         0.0,         0.0
"Line.SW3"              ,   2,      -155.9,       -97.5
"Line.SW4"              ,   1,       295.1,       -88.6,         0.0,         0.0,         0.0,         0.0
"Line.SW4"              ,   2,      -295.1,        88.6
"Line.SW5"              ,   1,        66.0,        33.0,         0.0,         0.0,         0.0,         0.0
"Line.SW5"              ,   2,       -66.0,       -33.0
"Line.XFM1"             ,   1,         0.0,         0.0,         0.0,         0.0,         0.0,         0.0
"Line.XFM1"             ,   2,         0.0,         0.0
"Transformer.REG1A"     ,   1,       730.7,       168.8,         0.0,         0.0,         0.0,         0.0
"Transformer.REG1A"     ,   2,      -730.7,      -168.7
"Transformer.REG2A"     ,   1,        12.4,         6.2,         0.0,         0.0,         0.0,         0.0
"Transformer.REG2A"     ,   2,       -12.4,        -6.2
"Transformer.REG3A"     ,   1,        16.5,         8.2,         0.0,         0.0,         0.0,         0.0
"Transformer.REG3A"     ,   2,       -16.5,        -8.2
"Transformer.REG4A"     ,   1,       295.1,       -88.6,         0.0,         0.0,         0.0,         0.0
"Transformer.REG4A"     ,   2,      -295.1,        88.6
"Load.S1"               ,   1,         8.2,         4.1
"Load.S2"               ,   1,         4.1,         2.1
"Load.S4"               ,   1,         8.2,         4.1
"Load.S5"               ,   1,         4.1,         2.1
"Load.S6"               ,   1,         8.2,         4.1
"Load.S7"               ,   1,         4.1,         2.1
"Load.S9"               ,   1,         8.2,         4.1
"Load.S10"              ,   1,         4.1,         2.1
"Load.S11"              ,   1,         8.2,         4.1
"Load.S12"              ,   1,         4.1,         2.1
"Load.S16"              ,   1,         8.2,         4.1
"Load.S17"              ,   1,         4.1,         2.1
"Load.S19"              ,   1,         8.2,         4.1
"Load.S20"              ,   1,         8.2,         4.1
"Load.S22"              ,   1,         8.2,         4.1
"Load.S24"              ,   1,         8.2,         4.1
"Load.S28"              ,   1,         8.2,         4.1
"Load.S29"              ,   1,         8.2,         4.1
"Load.S30"              ,   1,         8.2,         4.1
"Load.S31"              ,   1,         4.1,         2.1
"Load.S32"              ,   1,         4.1,         2.1
"Load.S33"              ,   1,         8.2,         4.1
"Load.S34"              ,   1,         8.2,         4.1
"Load.S35"              ,   1,         8.2,         4.1
"Load.S37"              ,   1,         8.2,         4.1
"Load.S38"              ,   1,         4.1,         2.1
"Load.S39"              ,   1,         4.1,         2.1
"Load.S41"              ,   1,         4.1,         2.1
"Load.S42"              ,   1,         4.1,         2.1
"Load.S43"              ,   1,         8.2,         4.1
"Load.S45"              ,   1,         4.1,         2.1
"Load.S46"              ,   1,         4.1,         2.1
"Load.S47"              ,   1,        21.6,        15.5
"Load.S48"              ,   1,        43.3,        30.9
"Load.S49"              ,   1,        28.8,        19.6
"Load.S50"              ,   1,         8.2,         4.1
"Load.S51"              ,   1,         4.1,         2.1
"Load.S52"              ,   1,         8.2,         4.1
"Load.S53"              ,   1,         8.2,         4.1
"Load.S55"              ,   1,         4.1,         2.1
"Load.S56"              ,   1,         4.1,         2.1
"Load.S58"              ,   1,         4.1,         2.1
"Load.S59"              ,   1,         4.1,         2.1
"Load.S60"              ,   1,         4.1,         2.1
"Load.S62"              ,   1,         8.2,         4.1
"Load.S63"              ,   1,         8.2,         4.1
"Load.S64"              ,   1,        15.5,         7.2
"Load.S65"              ,   1,        28.8,        20.6
"Load.S66"              ,   1,        15.5,         7.2
"Load.S68"              ,   1,         4.1,         2.1
"Load.S69"              ,   1,         8.2,         4.1
"Load.S70"              ,   1,         4.1,         2.1
"Load.S71"              ,   1,         8.2,         4.1
"Load.S73"              ,   1,         8.2,         4.1
"Load.S74"              ,   1,         8.2,         4.1
"Load.S75"              ,   1,         8.2,         4.1
"Load.S76"              ,   1,        50.5,        37.1
"Load.S77"              ,   1,         8.2,         4.1
"Load.S79"              ,   1,         8.2,         4.1
"Load.S80"              ,   1,         8.2,         4.1
"Load.S82"              ,   1,         8.2,         4.1
"Load.S83"              ,   1,         4.1,         2.1
"Load.S84"              ,   1,         4.1,         2.1
"Load.S85"              ,   1,         8.2,         4.1
"Load.S86"              ,   1,         4.1,         2.1
"Load.S87"              ,   1,         8.2,         4.1
"Load.S88"              ,   1,         8.2,         4.1
"Load.S90"              ,   1,         8.2,         4.1
"Load.S92"              ,   1,         8.2,         4.1
"Load.S94"              ,   1,         8.2,         4.1
"Load.S95"              ,   1,         4.1,         2.1
"Load.S96"              ,   1,         4.1,         2.1
"Load.S98"              ,   1,         8.2,         4.1
"Load.S99"              ,   1,         8.2,         4.1
"Load.S100"             ,   1,         8.2,         4.1
"Load.S102"             ,   1,         4.1,         2.1
"Load.S103"             ,   1,         8.2,         4.1
"Load.S104"             ,   1,         8.2,         4.1
"Load.S106"             ,   1,         8.2,         4.1
"Load.S107"             ,   1,         8.2,         4.1
"Load.S109"             ,   1,         8.2,         4.1
"Load.S111"             ,   1,         4.1,         2.1
"Load.S112"             ,   1,         4.1,         2.1
"Load.S113"             ,   1,         8.2,         4.1
"Load.S114"             ,   1,         4.1,         2.1
"Generator.C83"         ,   1,         0.0,      -200.0
"Generator.C88"         ,   1,         0.0,       -16.7
"Generator.C90"         ,   1,         0.0,       -16.7
"Generator.C92"         ,   1,         0.0,       -16.7
